Version 4
SHEET 1 880 680
WIRE 544 -16 16 -16
WIRE 16 96 16 -16
WIRE 128 96 16 96
WIRE 128 128 -32 128
WIRE 384 128 240 128
WIRE 384 160 384 128
WIRE 512 176 496 176
WIRE 592 176 512 176
WIRE 624 176 592 176
WIRE 384 192 368 192
WIRE 128 240 128 160
WIRE 128 240 -32 240
WIRE 512 240 512 176
WIRE 512 240 384 240
WIRE 368 256 368 192
WIRE 496 256 368 256
WIRE 384 288 384 240
WIRE 128 304 128 240
WIRE 496 304 496 256
WIRE 544 304 544 -16
WIRE 544 304 496 304
WIRE 624 304 544 304
WIRE 128 336 -32 336
WIRE 384 336 384 320
WIRE 384 336 240 336
WIRE 128 368 16 368
WIRE 16 416 16 368
WIRE 592 416 592 176
WIRE 592 416 16 416
FLAG 704 176 0
FLAG 704 304 0
FLAG -112 128 0
FLAG -112 240 0
FLAG -112 336 0
SYMBOL ZZZ\\LOGIC\\74HC\\74hc00 432 112 R0
SYMATTR InstName U3
SYMBOL ZZZ\\LOGIC\\74HC\\74hc00 432 240 R0
SYMATTR InstName U4
SYMBOL voltage -16 128 R90
WINDOW 0 -32 56 VBottom 2
WINDOW 3 12 465 VTop 2
WINDOW 123 0 0 Left 0
WINDOW 39 0 0 Left 0
SYMATTR InstName V1
SYMATTR Value PULSE(0 5 0.9u 1n 1n 0.1u 0.2u 2)
SYMBOL voltage -16 240 R90
WINDOW 0 -32 56 VBottom 2
WINDOW 3 13 431 VTop 2
SYMATTR InstName V2
SYMATTR Value PULSE(0 5 0.08u 1n 1n 0.1u 0.2u 7)
SYMBOL voltage -16 336 R90
WINDOW 0 -32 56 VBottom 2
WINDOW 3 0 432 VTop 2
SYMATTR InstName V3
SYMATTR Value PULSE(0 5 0.5u 1n 1n 0.1u 0.2u 2)
SYMBOL res 720 160 R90
WINDOW 0 0 56 VBottom 2
WINDOW 3 32 56 VTop 2
SYMATTR InstName R1
SYMATTR Value 100k
SYMBOL res 720 288 R90
WINDOW 0 0 56 VBottom 2
WINDOW 3 32 56 VTop 2
SYMATTR InstName R2
SYMATTR Value 100k
SYMBOL ZZZ\\LOGIC\\74HC\\74hc10 176 48 R0
SYMATTR InstName U7
SYMBOL ZZZ\\LOGIC\\74HC\\74hc10 176 256 R0
SYMATTR InstName U8
TEXT 32 446 Left 2 !.tran 0 1.5u 0.4u
