Version 4
SHEET 1 4120 888
WIRE 1440 -144 1440 -160
WIRE 1632 -144 1648 -160
WIRE 1808 -96 1808 -144
WIRE 1632 -32 1632 -64
WIRE 2096 -16 2096 -128
WIRE 2096 -16 1952 -16
WIRE 2320 -16 2096 -16
WIRE 1440 16 1440 -64
WIRE 1808 64 1808 -16
WIRE 464 80 256 80
WIRE 640 80 464 80
WIRE 768 80 704 80
WIRE 1952 80 1952 -16
WIRE 2320 80 2320 -16
WIRE 768 96 768 80
WIRE 1008 96 768 96
WIRE 640 112 608 112
WIRE 736 112 704 112
WIRE 1312 128 1120 128
WIRE 1696 128 1520 128
WIRE 1872 128 1776 128
WIRE 2480 128 2400 128
WIRE 2736 128 2560 128
WIRE 3136 128 2944 128
WIRE 1312 160 1120 160
WIRE 1568 160 1520 160
WIRE 1664 160 1568 160
WIRE 2688 160 2592 160
WIRE 2736 160 2688 160
WIRE 3136 160 2944 160
WIRE 1568 176 1568 160
WIRE 1664 176 1664 160
WIRE 2592 176 2592 160
WIRE 2688 176 2688 160
WIRE 1312 192 1120 192
WIRE 3136 192 2944 192
WIRE 464 208 256 208
WIRE 608 208 608 112
WIRE 608 208 464 208
WIRE 736 208 736 112
WIRE 1008 208 736 208
WIRE 1568 256 1568 240
WIRE 1568 256 1520 256
WIRE 1952 256 1952 176
WIRE 1952 256 1568 256
WIRE 2320 256 2320 176
WIRE 2688 256 2688 240
WIRE 2688 256 2320 256
WIRE 2736 256 2688 256
WIRE 608 272 608 208
WIRE 1952 272 1952 256
WIRE 2048 272 1952 272
WIRE 2064 272 2048 272
WIRE 2176 272 2144 272
WIRE 2192 272 2176 272
WIRE 2320 272 2320 256
WIRE 2320 272 2272 272
WIRE 1248 288 1216 288
WIRE 1312 288 1248 288
WIRE 1568 288 1520 288
WIRE 1664 288 1664 240
WIRE 1664 288 1568 288
WIRE 1680 288 1664 288
WIRE 2592 288 2592 240
WIRE 2592 288 2576 288
WIRE 2688 288 2592 288
WIRE 2736 288 2688 288
WIRE 3008 288 2944 288
WIRE 3040 288 3008 288
WIRE 1568 304 1568 288
WIRE 2688 304 2688 288
WIRE 1248 320 1248 288
WIRE 3008 320 3008 288
WIRE 1952 368 1952 272
WIRE 2048 368 2048 272
WIRE 2080 368 2048 368
WIRE 2176 368 2176 272
WIRE 2176 368 2144 368
WIRE 2320 368 2320 272
WIRE 1568 384 1568 368
WIRE 1568 384 1520 384
WIRE 2688 384 2688 368
WIRE 2736 384 2688 384
WIRE 1248 416 1248 384
WIRE 1312 416 1248 416
WIRE 1696 416 1520 416
WIRE 1872 416 1776 416
WIRE 2480 416 2400 416
WIRE 2736 416 2560 416
WIRE 3008 416 3008 384
WIRE 3008 416 2944 416
WIRE 1120 496 1120 192
WIRE 1248 496 1248 416
WIRE 3008 496 3008 416
WIRE 3136 496 3136 192
WIRE 1568 512 1568 384
WIRE 1952 512 1952 464
WIRE 1952 512 1568 512
WIRE 2096 512 1952 512
WIRE 2320 512 2320 464
WIRE 2320 512 2096 512
WIRE 2688 512 2688 384
WIRE 2688 512 2320 512
WIRE 2096 560 2096 512
FLAG 1440 16 0
FLAG 1440 -160 Vdd
FLAG 256 160 0
FLAG 256 288 0
FLAG 1008 96 A1
FLAG 1008 208 B1
FLAG 1632 -32 0
FLAG 1648 -160 VCC
FLAG 2096 560 0
FLAG 1808 -144 Vbus
FLAG 1808 64 0
FLAG 1680 288 VCC
FLAG 1248 496 0
FLAG 1216 288 Vdd
FLAG 1120 496 0
FLAG 1120 128 A1
FLAG 1120 160 B1
FLAG 2576 288 VCC
FLAG 3008 496 0
FLAG 3040 288 Vdd
FLAG 3136 496 0
FLAG 3136 128 B1
FLAG 3136 160 A1
FLAG 2096 -128 Vbus
FLAG 464 208 tri
FLAG 464 80 Sin
SYMBOL Misc\\battery 1440 -160 R0
WINDOW 123 0 0 Left 2
WINDOW 39 0 0 Left 2
SYMATTR InstName V1
SYMATTR Value 5
SYMBOL Misc\\signal 256 64 R0
SYMATTR InstName Sine
SYMATTR Value SINE(0.5 0.45 60)
SYMBOL voltage 256 192 R0
WINDOW 123 0 0 Left 2
WINDOW 39 0 0 Left 2
WINDOW 3 -65 -247 VRight 2
SYMATTR InstName Tri
SYMATTR Value PULSE(0 1 0 0.00005 0.00005 0 0.0001)
SYMBOL Misc\\battery 1632 -160 R0
WINDOW 123 0 0 Left 2
WINDOW 39 0 0 Left 2
SYMATTR InstName V2
SYMATTR Value 12Vdc
SYMBOL ZZZ\\MOS\\IRF\\NMOSFET\\irf3205 1920 128 R0
SYMATTR InstName U5
SYMBOL ZZZ\\MOS\\IRF\\NMOSFET\\irf3205 1920 416 R0
SYMATTR InstName U6
SYMBOL ZZZ\\MOS\\IRF\\NMOSFET\\irf3205 2352 128 M0
SYMATTR InstName U7
SYMBOL ZZZ\\MOS\\IRF\\NMOSFET\\irf3205 2352 416 M0
SYMATTR InstName U8
SYMBOL res 2160 256 R90
WINDOW 0 0 56 VBottom 2
WINDOW 3 32 56 VTop 2
SYMATTR InstName R9
SYMATTR Value 10
SYMBOL Misc\\battery 1808 -112 R0
WINDOW 123 0 0 Left 2
WINDOW 39 0 0 Left 2
SYMATTR InstName V3
SYMATTR Value 5
SYMBOL res 1792 112 R90
WINDOW 0 15 105 VBottom 2
WINDOW 3 -11 6 VTop 2
SYMATTR InstName R12
SYMATTR Value 33
SYMBOL res 1792 400 R90
WINDOW 0 17 107 VBottom 2
WINDOW 3 -11 8 VTop 2
SYMATTR InstName R13
SYMATTR Value 33
SYMBOL cap 1552 176 R0
WINDOW 0 28 8 Left 2
WINDOW 3 24 53 Left 2
SYMATTR InstName C4
SYMATTR Value 2.2µF
SYMBOL cap 1552 304 R0
WINDOW 3 28 57 Left 2
SYMATTR Value 2.2µF
SYMATTR InstName C5
SYMBOL schottky 1680 240 R180
WINDOW 0 -29 68 Left 2
WINDOW 3 -106 -4 Left 2
SYMATTR InstName D3
SYMATTR Value MURS120
SYMATTR Description Diode
SYMATTR Type diode
SYMBOL cap 1232 320 R0
SYMATTR InstName C6
SYMATTR Value 10µf
SYMBOL IR2110 1408 272 R0
WINDOW 0 16 -157 Center 2
SYMATTR InstName U9
SYMBOL res 2464 112 M90
WINDOW 0 15 105 VBottom 2
WINDOW 3 -11 6 VTop 2
SYMATTR InstName R1
SYMATTR Value 33
SYMBOL res 2464 400 M90
WINDOW 0 17 107 VBottom 2
WINDOW 3 -11 8 VTop 2
SYMATTR InstName R2
SYMATTR Value 33
SYMBOL cap 2704 176 M0
WINDOW 0 28 8 Left 2
WINDOW 3 24 53 Left 2
SYMATTR InstName C1
SYMATTR Value 2.2µF
SYMBOL cap 2704 304 M0
WINDOW 3 28 57 Left 2
SYMATTR Value 2.2µF
SYMATTR InstName C3
SYMBOL schottky 2576 240 M180
WINDOW 0 -29 68 Left 2
WINDOW 3 -106 -4 Left 2
SYMATTR InstName D1
SYMATTR Value MURS120
SYMATTR Description Diode
SYMATTR Type diode
SYMBOL cap 3024 320 M0
SYMATTR InstName C7
SYMATTR Value 10µf
SYMBOL IR2110 2848 272 M0
WINDOW 0 16 -157 Center 2
SYMATTR InstName U3
SYMBOL Digital\\diffschmitt 640 32 R0
WINDOW 3 61 5 Left 2
SYMATTR InstName A1
SYMATTR Value Vhigh=5 Vlow=0 vt=0 vh=1m td=10n
SYMBOL ind 2176 288 R270
WINDOW 0 32 56 VTop 2
WINDOW 3 5 56 VBottom 2
SYMATTR InstName L1
SYMATTR Value 10m
SYMBOL cap 2144 352 R90
WINDOW 0 0 32 VBottom 2
WINDOW 3 32 32 VTop 2
SYMATTR InstName C2
SYMATTR Value 10µ
TEXT 1040 -104 Left 3 !.tran 0 20m 0 100n uic
TEXT 384 -16 Left 7 ;PSoC
TEXT 2496 -128 Left 5 ;Alternate!
RECTANGLE Normal 976 496 144 -80 2
